Version 4
SHEET 1 880 680
WIRE 256 176 176 176
FLAG 144 240 A
IOPIN 144 240 In
FLAG 144 272 B
IOPIN 144 272 In
FLAG 256 256 Y
IOPIN 256 256 Out
FLAG 256 176 VDD
IOPIN 256 176 In
SYMBOL CD4011B 192 192 R0
SYMATTR InstName U1
