Version 4
SHEET 1 880 680
WIRE 448 -64 160 -64
WIRE 160 16 160 -64
WIRE 160 16 -224 16
WIRE 448 16 448 -64
WIRE 464 16 448 16
WIRE -80 64 -96 64
WIRE 48 80 32 80
WIRE -224 96 -224 16
WIRE -224 96 -272 96
WIRE -80 96 -112 96
WIRE -96 144 -96 64
WIRE -96 144 -272 144
WIRE 32 192 32 80
WIRE 32 192 -272 192
WIRE 160 240 160 80
WIRE 160 240 -272 240
WIRE -160 304 -272 304
WIRE 448 336 448 80
WIRE 448 336 384 336
FLAG 384 240 q4
FLAG 384 272 q5
FLAG 384 304 q6
FLAG -272 144 clk
FLAG -272 192 rtc
FLAG -272 240 ctc
FLAG -272 96 reset
FLAG 672 144 q8
FLAG 672 176 q9
FLAG 672 272 q12
FLAG 672 304 q13
FLAG 672 336 q14
FLAG 672 208 q10
FLAG 448 336 q7
FLAG -160 304 VDD
SYMBOL CD4024B.i 272 -48 R0
SYMATTR InstName U1
SYMBOL CD4024B.i 560 -48 R0
SYMATTR InstName U2
SYMBOL CD4049B.i 96 32 R0
SYMATTR InstName U3
SYMBOL CD4049B.i -176 48 R0
SYMATTR InstName U4
SYMBOL CD4011B -32 16 R0
SYMATTR InstName U5
